Circuit: * C:\Users\holge\OneDrive\AAU - Elektronik og IT\5. semester\P5\VCO_tuning\VCO_tuning_network.asc

Ignoring empty pin current: Ix(u1:1)
Ignoring empty pin current: Ix(u1:2)
Ignoring empty pin current: Ix(u2:1)
Ignoring empty pin current: Ix(u2:2)

Date: Fri Nov 15 12:46:24 2019
Total elapsed time: 0.104 seconds.

tnom = 27
temp = 27
method = trap
totiter = 2003
traniter = 0
tranpoints = 0
accept = 0
rejected = 0
matrix size = 10
fillins = 3
solver = Normal
Matrix Compiler1: 400 bytes object code size  0.4/0.3/[0.2]
Matrix Compiler2: 680 bytes object code size  0.2/0.3/[0.2]

